
APtclcactv10311717073D 0   0.00000     0.00000
 
  4  3  0  0  0  0  0  0  0  0999 V2000
    0.7189   -0.4357   -0.0000 C   0  0  0  0  0  0  0  0  0  0  0  0
   -0.4661    0.4392   -0.0000 C   0  0  0  0  0  0  0  0  0  0  0  0
    2.0315    0.1367    0.0000 C   0  0  0  0  0  0  0  0  0  0  0  0
   -1.7146   -0.1052    0.0000 O   0  0  0  0  0  0  0  0  0  0  0  0
  1  2  1  0  0  0  0
  1  3  1  0  0  0  0
  2  4  1  0  0  0  0
M  END
$$$$

APtclcactv10311716533D 0   0.00000     0.00000
 
  4  3  0  0  0  0  0  0  0  0999 V2000
    0.8067   -1.2401   -0.0005 C   0  0  0  0  0  0  0  0  0  0  0  0
    0.8067    1.2401   -0.0005 C   0  0  0  0  0  0  0  0  0  0  0  0
   -1.2791   -0.0000   -0.0004 O   0  0  0  0  0  0  0  0  0  0  0  0
    0.0907    0.0000    0.0015 C   0  0  0  0  0  0  0  0  0  0  0  0
  1  4  1  0  0  0  0
  2  4  1  0  0  0  0
  3  4  1  0  0  0  0
M  END
$$$$

APtclcactv10311716523D 0   0.00000     0.00000
 
  5  4  0  0  0  0  0  0  0  0999 V2000
   -0.0000   -0.2861   -0.0000 C   0  0  0  0  0  0  0  0  0  0  0  0
   -1.2757    0.4504   -0.0000 C   0  0  0  0  0  0  0  0  0  0  0  0
    1.2757    0.4504    0.0000 C   0  0  0  0  0  0  0  0  0  0  0  0
   -2.4552   -0.2306    0.0000 O   0  0  0  0  0  0  0  0  0  0  0  0
    2.4552   -0.2306   -0.0000 O   0  0  0  0  0  0  0  0  0  0  0  0
  1  2  1  0  0  0  0
  1  3  1  0  0  0  0
  2  4  1  0  0  0  0
  3  5  1  0  0  0  0
M  END
