C3O2
APtclcactv10311716523D 0   0.00000     0.00000
 
  5  4  0  0  0  0  0  0  0  0999 V2000
   -0.0000   -0.2861   -0.0000 C   0  0  0  0  0  0  0  0  0  0  0  0
   -1.2757    0.4504   -0.0000 C   0  0  0  0  0  0  0  0  0  0  0  0
    1.2757    0.4504    0.0000 C   0  0  0  0  0  0  0  0  0  0  0  0
   -2.4552   -0.2306    0.0000 O   0  0  0  0  0  0  0  0  0  0  0  0
    2.4552   -0.2306   -0.0000 O   0  0  0  0  0  0  0  0  0  0  0  0
  1  2  1  0  0  0  0
  1  3  1  0  0  0  0
  2  4  1  0  0  0  0
  3  5  1  0  0  0  0
M  END
$$$$
